Version 4
SHEET 1 1112 852
WIRE -912 -304 -960 -304
WIRE -304 -304 -416 -304
WIRE 576 -304 288 -304
WIRE -304 -272 -304 -304
WIRE 448 -240 384 -240
WIRE 512 -240 448 -240
WIRE 576 -240 576 -304
WIRE 576 -240 512 -240
WIRE 640 -240 576 -240
WIRE 704 -240 640 -240
WIRE 768 -240 704 -240
WIRE -960 -224 -960 -304
WIRE 288 -224 288 -304
WIRE 288 -224 -256 -224
WIRE 384 -208 384 -240
WIRE 448 -208 448 -240
WIRE 512 -208 512 -240
WIRE 576 -208 576 -240
WIRE 640 -208 640 -240
WIRE 704 -208 704 -240
WIRE 768 -208 768 -240
WIRE 384 -112 384 -144
WIRE 448 -112 448 -144
WIRE 512 -112 512 -144
WIRE 576 -112 576 -144
WIRE 640 -112 640 -144
WIRE 704 -112 704 -144
WIRE 768 -112 768 -144
WIRE -960 -64 -960 -144
WIRE -304 -64 -304 -192
WIRE 48 -64 -304 -64
WIRE 384 0 384 -32
WIRE 448 0 448 -32
WIRE 512 0 512 -32
WIRE 640 0 640 -32
WIRE 704 0 704 -32
WIRE 768 0 768 -32
WIRE 48 32 48 -64
WIRE 288 32 48 32
WIRE 576 32 576 -32
WIRE 576 32 512 32
WIRE -304 48 -304 -64
WIRE 48 64 48 32
WIRE 512 64 512 32
WIRE 128 96 96 96
WIRE 288 112 288 32
WIRE 320 112 288 112
WIRE 432 112 400 112
WIRE 464 112 432 112
WIRE 576 112 576 32
WIRE 576 112 544 112
WIRE 48 176 48 144
WIRE 128 176 128 96
WIRE 128 176 48 176
WIRE 288 176 288 112
WIRE 432 176 432 112
WIRE 432 176 288 176
WIRE 192 224 160 224
WIRE 288 224 288 176
WIRE 288 224 256 224
WIRE 288 288 288 224
WIRE 288 288 256 288
WIRE -304 304 -304 128
WIRE -224 304 -304 304
WIRE 0 304 -224 304
WIRE 432 304 432 192
WIRE 656 304 432 304
WIRE 48 320 48 176
WIRE 160 320 160 224
WIRE 160 320 48 320
WIRE -304 336 -304 304
WIRE 48 352 48 320
WIRE 288 352 288 288
WIRE 288 352 256 352
WIRE -224 384 -224 304
WIRE -224 384 -256 384
WIRE -176 416 -176 96
WIRE -176 416 -240 416
WIRE 288 416 288 352
WIRE 288 416 256 416
WIRE -176 464 -176 416
WIRE -112 464 -176 464
WIRE 48 496 48 432
WIRE 432 496 432 304
WIRE 432 496 48 496
WIRE -240 512 -240 416
WIRE -176 512 -176 480
WIRE -112 512 -112 464
WIRE 48 560 48 496
WIRE 192 576 160 576
WIRE 288 576 256 576
WIRE -240 608 -240 576
WIRE -176 608 -176 576
WIRE -176 608 -240 608
WIRE -112 608 -112 576
WIRE -112 608 -176 608
WIRE 288 640 288 576
WIRE 288 640 256 640
WIRE -176 672 -176 608
WIRE 0 672 0 304
WIRE 0 672 -176 672
WIRE 48 672 48 640
WIRE 48 672 0 672
WIRE 160 672 160 576
WIRE 160 672 48 672
WIRE -304 688 -304 416
WIRE -176 688 -304 688
WIRE 288 704 288 640
WIRE 288 704 256 704
WIRE 288 768 288 704
WIRE 288 768 256 768
WIRE -176 832 -176 688
WIRE 288 832 288 768
FLAG -416 -304 input
IOPIN -416 -304 In
FLAG 656 304 output
IOPIN 656 304 Out
FLAG 288 832 0
FLAG -176 832 0
FLAG -912 -304 input
IOPIN -912 -304 Out
FLAG -960 -64 0
SYMBOL pot -320 -288 R0
WINDOW 3 36 88 Invisible 2
SYMATTR Value Rtot=10K wiper=0.9
SYMATTR InstName Boost_Hi
SYMBOL cap 560 -208 R0
SYMATTR InstName C4
SYMATTR Value 10n
SYMBOL cap 496 -208 R0
SYMATTR InstName C3
SYMATTR Value 10n
SYMBOL cap 432 -208 R0
SYMATTR InstName C2
SYMATTR Value 15n
SYMBOL cap 368 -208 R0
SYMATTR InstName C1
SYMATTR Value 15n
SYMBOL cap 624 -208 R0
SYMATTR InstName C5
SYMATTR Value 6n8
SYMBOL cap 688 -208 R0
SYMATTR InstName C6
SYMATTR Value 6n8
SYMBOL cap 752 -208 R0
SYMATTR InstName C7
SYMATTR Value 3n3
SYMBOL ind 368 -128 R0
SYMATTR InstName L1
SYMATTR Value 176m
SYMBOL ind 432 -128 R0
SYMATTR InstName L2
SYMATTR Value 100m
SYMBOL ind 496 -128 R0
SYMATTR InstName L3
SYMATTR Value 100m
SYMBOL ind 560 -128 R0
SYMATTR InstName L4
SYMATTR Value 50n
SYMBOL ind 624 -128 R0
SYMATTR InstName L5
SYMATTR Value 50n
SYMBOL ind 688 -128 R0
SYMATTR InstName L6
SYMATTR Value 22n
SYMBOL ind 752 -128 R0
SYMATTR InstName L7
SYMATTR Value 22n
SYMBOL pot 448 128 R270
WINDOW 0 -15 140 VLeft 2
WINDOW 3 36 88 Invisible 2
SYMATTR InstName Hi_Boost_Q
SYMATTR Value Rtot=2K2 wiper=.5
SYMBOL res 416 96 R90
WINDOW 0 0 56 VBottom 2
WINDOW 3 32 56 VTop 2
SYMATTR InstName R1
SYMATTR Value 1m
SYMBOL pot 32 160 M180
WINDOW 3 36 88 Invisible 2
SYMATTR Value Rtot=100K wiper=.8
SYMATTR InstName Cut_Lo
SYMBOL pot -320 32 R0
WINDOW 0 -75 113 Left 2
WINDOW 3 36 88 Invisible 2
SYMATTR InstName Cut_Hi
SYMATTR Value Rtot=1K wiper=.8
SYMBOL res 32 336 R0
SYMATTR InstName R2
SYMATTR Value 1k
SYMBOL cap 256 400 R90
WINDOW 0 0 32 VBottom 2
WINDOW 3 32 32 VTop 2
SYMATTR InstName C8
SYMATTR Value 15n
SYMBOL cap 256 336 R90
WINDOW 0 0 32 VBottom 2
WINDOW 3 32 32 VTop 2
SYMATTR InstName C9
SYMATTR Value 22n
SYMBOL cap 256 272 R90
WINDOW 0 0 32 VBottom 2
WINDOW 3 32 32 VTop 2
SYMATTR InstName C10
SYMATTR Value 47n
SYMBOL cap 256 208 R90
WINDOW 0 0 32 VBottom 2
WINDOW 3 32 32 VTop 2
SYMATTR InstName C11
SYMATTR Value 100n
SYMBOL res 32 544 R0
SYMATTR InstName R3
SYMATTR Value 10k
SYMBOL cap 256 752 R90
WINDOW 0 0 32 VBottom 2
WINDOW 3 32 32 VTop 2
SYMATTR InstName C12
SYMATTR Value 330n
SYMBOL cap 256 688 R90
WINDOW 0 0 32 VBottom 2
WINDOW 3 32 32 VTop 2
SYMATTR InstName C13
SYMATTR Value 470n
SYMBOL cap 256 624 R90
WINDOW 0 0 32 VBottom 2
WINDOW 3 32 32 VTop 2
SYMATTR InstName C14
SYMATTR Value 1µ
SYMBOL cap 256 560 R90
WINDOW 0 0 32 VBottom 2
WINDOW 3 32 32 VTop 2
SYMATTR InstName C15
SYMATTR Value 2µ2
SYMBOL cap -256 512 R0
SYMATTR InstName C16
SYMATTR Value 47n
SYMBOL cap -192 512 R0
SYMATTR InstName C17
SYMATTR Value 47n
SYMBOL cap -128 512 R0
SYMATTR InstName C18
SYMATTR Value 150n
SYMBOL res -160 80 R90
WINDOW 0 0 56 VBottom 2
WINDOW 3 32 56 VTop 2
SYMATTR InstName R4
SYMATTR Value 75
SYMBOL pot -320 320 R0
WINDOW 0 -130 101 Left 2
WINDOW 3 36 88 Invisible 2
SYMATTR InstName Boost_Lo
SYMATTR Value Rtot=10K wiper=0.4
SYMBOL voltage -960 -240 R0
WINDOW 123 24 44 Left 2
WINDOW 39 0 0 Left 0
SYMATTR Value2 AC 1
SYMATTR InstName V1
SYMATTR Value 0
TEXT 616 32 Left 2 ;Hi Boost Freq
TEXT 352 -16 Left 2 ;3k
TEXT 416 -16 Left 2 ;4k
TEXT 480 -16 Left 2 ;5k
TEXT 544 -16 Left 2 ;6k
TEXT 592 -16 Left 2 ;10k
TEXT 656 -16 Left 2 ;12k
TEXT 720 -16 Left 2 ;16k
TEXT -288 488 Left 2 ;20k
TEXT -224 488 Left 2 ;10k
TEXT -144 488 Left 2 ;5k
TEXT -160 704 Left 2 ;Bypass sw1b
TEXT 440 208 Left 2 ;Bypass sw1a
TEXT 304 568 Left 2 ;20 Hz
TEXT 304 632 Left 2 ;30 Hz
TEXT 304 696 Left 2 ;60 Hz
TEXT 304 760 Left 2 ;100 Hz
TEXT -144 440 Left 2 ;Hi Cut Freq
TEXT 384 568 Left 2 ;Lo Freq Sel
TEXT -936 -120 Left 2 !.ac dec 10000 10 20000
TEXT -960 -448 Left 2 !.include pot.sub.
TEXT 128 600 VLeft 2 ;<---- Linked ---->
